59
box
Si 18.6828993649859 9.93639377949651 0.0000
Si 20.5341477887155 10.5291879171697 0.0000
Si 17.4664418422820 11.5299583855717 0.0000
Si 15.5214640299651 11.0806819867258 0.0000
Si 14.1008152451679 12.4381784684713 0.0000
Si 20.4544918612594 12.5389932252765 0.0000
Si 18.5575839970327 13.1833987323432 0.0000
Si 22.2702022416694 13.3057337378382 0.0000
Si 17.6705781911384 14.9653705211635 0.0000
Si 14.2304069099912 14.2926489030433 0.0000
Si 15.8198322657454 15.4649940083120 0.0000
Si 18.8803380021780 16.5260364124682 0.0000
Si 20.8336303962524 16.1156267644329 0.0000
Si 22.2684417609942 15.1060882140488 0.0000
Si 23.8238737285626 16.1230566124625 0.0000
Si 12.7897965833484 15.3795715409140 0.0000
Si 13.5341916869308 17.1909368472955 0.0000
Si 15.4711745803535 17.3887440268282 0.0000
Si 23.7349055042713 17.9904332903263 0.0000
Si 21.7494047765278 17.8777861721266 0.0000
Si 18.5834351669551 18.4984348264902 0.0000
Si 20.3809163548852 19.3256382337998 0.0000
Si 24.8111324971207 19.6826607063197 0.0000
Si 17.2504066535453 19.8719888199508 0.0000
Si 15.6697170177616 19.1032966613524 0.0000
Si 13.9375440751930 19.8951943978282 0.0000
Si 12.3800998246481 18.7631793687363 0.0000
Si 10.6194652728795 19.6076954680065 0.0000
Si 11.4121830147276 21.2776501079831 0.0000
Si 13.2941402746605 21.4667995742339 0.0000
Si 13.8498784782452 23.3668358529005 0.0000
Si 10.3195145527179 22.7617664654816 0.0000
Si 10.8381946552932 24.6499048544276 0.0000
Si 12.8000512520444 25.0933345769386 0.0000
Si 15.6590306937446 24.0486981936258 0.0000
Si 17.5437619584506 23.4208751136878 0.0000
Si 18.3068133200112 21.5711071534714 0.0000
Si 20.2726781990030 21.2449388602880 0.0000
Si 21.6371567078603 22.6990650295387 0.0000
Si 23.5016863957792 22.8617586460638 0.0000
Si 24.8955202780055 21.4908557704247 0.0000
Si 23.2933657910447 24.8263732806624 0.0000
Si 24.2891253723989 26.5426137172367 0.0000
Si 23.5000889261471 28.3565499167137 0.0000
Si 21.4023272584193 24.6478811652202 0.0000
Si 19.9123409740196 25.9656900519690 0.0000
Si 20.0357907815839 27.9081778618305 0.0000
Si 21.6546227072591 29.0686196966485 0.0000
Si 20.7076319801154 30.3786243221660 0.0000
Si 19.0384775813779 29.2639013363879 0.0000
Si 18.0951121039148 25.2027413839444 0.0000
Si 16.2099901034540 25.8381880915697 0.0000
Si 15.2453401056039 27.5747667270650 0.0000
Si 15.5381672613087 29.5368265725912 0.0000
Si 17.3669373361955 30.3397264218475 0.0000
Si 13.3664809571569 26.9565066499382 0.0000
Si 11.8784818281804 28.2587397092222 0.0000
Si 12.2021363864877 30.2065346389006 0.0000
Si 14.0598085341370 30.8491658054999 0.0000
