192
berlin-A
Si 38.4062885107542 17.1875410275892 0.0000
Si 38.3792137583456 19.1757323105984 0.0000
Si 39.8666752021176 20.4280798878639 0.0000
Si 39.1597025099477 22.2892215484275 0.0000
Si 37.2157599219800 22.3431260495544 0.0000
Si 36.7912533264418 20.3914639503018 0.0000
Si 34.9943399125886 19.5279798014901 0.0000
Si 35.0420237494640 17.5297076483071 0.0000
Si 33.2010909089099 16.8295387293740 0.0000
Si 32.3424190165059 15.0334486234843 0.0000
Si 33.2857309722130 13.2701696350074 0.0000
Si 32.3950742695565 11.4860862631999 0.0000
Si 30.5149548024244 10.8621974241779 0.0000
Si 28.7987851204080 11.8950970548026 0.0000
Si 28.8697783326069 13.8903259615617 0.0000
Si 30.3487961382266 15.1487376140250 0.0000
Si 36.6277675572442 16.3473198271646 0.0000
Si 29.9440925907884 17.0602122936024 0.0000
Si 31.6709745890354 18.0699491314336 0.0000
Si 31.6234951739624 20.0678895798508 0.0000
Si 33.4655422716493 20.7786873448451 0.0000
Si 33.8795206378403 22.7242056164374 0.0000
Si 35.6780751065746 23.5991613253055 0.0000
Si 35.6541020399117 25.5983136252223 0.0000
Si 37.4369499714334 26.4556567628377 0.0000
Si 40.2115518908267 23.9346140396606 0.0000
Si 39.1643409362499 25.6007166831803 0.0000
Si 40.6772830762375 26.8749436716146 0.0000
Si 39.9923451760007 28.6783844561754 0.0000
Si 38.0156000702126 28.3667075011331 0.0000
Si 36.7919334169785 29.9479202516258 0.0000
Si 37.3997360256903 31.8427569109066 0.0000
Si 39.3464492979972 32.1152538574400 0.0000
Si 40.5763981313627 30.5827062122131 0.0000
Si 29.9533607882963 21.1573882570178 0.0000
Si 30.3558697229137 23.1031423742289 0.0000
Si 32.2027858242859 23.8109415574997 0.0000
Si 32.1918094460021 25.8103317385246 0.0000
Si 33.9873210255365 26.6720962790521 0.0000
Si 33.6144294125365 28.5447864155666 0.0000
Si 34.8260461677676 30.1104800570727 0.0000
Si 34.2624078099974 32.0292622194176 0.0000
Si 31.6345867363398 28.7505130800468 0.0000
Si 30.6473201842796 27.0556073550531 0.0000
Si 28.7984681557555 26.3225277960609 0.0000
Si 28.7977528078490 24.3174890905666 0.0000
Si 27.2185600204576 15.0077169531955 0.0000
Si 26.8059596436614 16.9121464781513 0.0000
Si 28.2796317362751 18.1632899272857 0.0000
Si 28.2432006681181 20.1477745086062 0.0000
Si 26.6928705709227 21.3338218824512 0.0000
Si 25.3217112569748 14.6118688216415 0.0000
Si 24.9126625680244 16.5161035992300 0.0000
Si 23.3462723435104 17.7346631322762 0.0000
Si 21.4216508528333 17.2050969488469 0.0000
Si 20.3992522864327 15.5529709337341 0.0000
Si 20.8626178076535 13.6139649857670 0.0000
Si 22.4570547651745 12.5420348492208 0.0000
Si 24.4268346942313 12.8466114014200 0.0000
Si 25.3202467748802 11.1026697181048 0.0000
Si 27.2667463393516 10.6372273148721 0.0000
Si 22.0538625012005 10.6097926160434 0.0000
Si 23.8463753453043 9.74308596530995 0.0000
Si 20.1506731595129 10.2658404951101 0.0000
Si 19.4874147414136 12.1608141706495 0.0000
Si 17.5237823216813 12.5300744717083 0.0000
Si 16.4017842179482 14.1225634087697 0.0000
Si 16.8094589631265 16.0792852100766 0.0000
Si 18.7409985658183 16.5789481966709 0.0000
Si 19.7601618233352 18.2265347554809 0.0000
Si 19.7985465736377 20.1749950305127 0.0000
Si 18.2285313082223 21.3936933975031 0.0000
Si 16.3471557481679 20.8364532140523 0.0000
Si 15.1367301628261 19.3006534857252 0.0000
Si 15.2440935923751 17.3133222583152 0.0000
Si 13.3834307723815 16.5964248931522 0.0000
Si 12.9687641327583 14.6388261645863 0.0000
Si 14.5375492191287 13.3955975806828 0.0000
Si 14.4629582537176 11.4032849683650 0.0000
Si 16.3663109189821 10.8961012579105 0.0000
Si 12.6827145736494 10.5153077794718 0.0000
Si 11.1094028155285 11.7564285035130 0.0000
Si 11.1802591242970 13.7554447314960 0.0000
Si 24.7071584402761 21.1943607940797 0.0000
Si 23.4123941237149 19.6944443710969 0.0000
Si 21.7272186849394 20.7021415014444 0.0000
Si 23.8788139543356 23.0122543775521 0.0000
Si 21.9935903228010 22.6726695159907 0.0000
Si 25.3639835060668 24.2909425529009 0.0000
Si 27.0881494760170 23.2727746367325 0.0000
Si 20.4265063447315 23.8833150248002 0.0000
Si 18.5049326662165 23.3627435277428 0.0000
Si 16.7736689873687 24.1603436079733 0.0000
Si 15.5054129440066 22.6237734215559 0.0000
Si 13.5844840269711 23.1815990318141 0.0000
Si 12.3474326523762 21.6220607407534 0.0000
Si 13.2146641963735 19.8202648377039 0.0000
Si 12.1232008110719 18.1454416129792 0.0000
Si 12.7569374140346 24.9696644069856 0.0000
Si 10.7932316417903 25.1421666421645 0.0000
Si 13.9894639224547 26.4668225005129 0.0000
Si 15.8816316604584 25.9413095970213 0.0000
Si 17.1742457546249 27.4349803639932 0.0000
Si 20.5197732747067 25.8334354699688 0.0000
Si 19.1074089574962 27.0980887817992 0.0000
Si 21.8189605317724 27.3195086695483 0.0000
Si 23.7830890373238 27.4813733438771 0.0000
Si 25.3572266069440 26.2881739979036 0.0000
Si 27.0676515631564 27.3277643279415 0.0000
Si 20.4051752466097 28.5912848994554 0.0000
Si 24.5807884730112 29.2847551741005 0.0000
Si 26.5749133618031 29.2171826627581 0.0000
Si 27.4431670864723 31.0043737039830 0.0000
Si 29.3487269192206 31.5489230104368 0.0000
Si 31.1008705328488 30.6771609542702 0.0000
Si 32.2875513855123 32.2766519534198 0.0000
Si 13.3948553016109 28.3286289811227 0.0000
Si 14.6577149676851 29.8208634553054 0.0000
Si 11.4261840901210 28.5490505163945 0.0000
Si 10.6642224246479 30.3843417592549 0.0000
Si 10.1334259933470 27.0269017530085 0.0000
Si 16.5579336749372 29.3108173700480 0.0000
Si 17.8420735485746 30.8241194564474 0.0000
Si 19.7954615915933 30.4695660084468 0.0000
Si 20.7509012102202 32.2177969229444 0.0000
Si 22.7248959531291 32.4909145721592 0.0000
Si 24.1842865077908 31.1614800790990 0.0000
Si 25.8880679539638 32.1716177575472 0.0000
Si 25.9555370444166 34.1400990997919 0.0000
Si 29.4659007305527 33.5359241271397 0.0000
Si 31.3368660417054 34.0399199202113 0.0000
Si 31.9671349029347 35.9071669109889 0.0000
Si 24.4486101813796 35.4501462796257 0.0000
Si 22.7905380043660 34.4164099780243 0.0000
Si 27.8683539284809 34.7119051422802 0.0000
Si 28.4771069639342 36.6123600896981 0.0000
Si 33.6651947808776 36.9165875851106 0.0000
Si 35.6054318244107 36.6599393256607 0.0000
Si 36.5952467971669 34.9378251064058 0.0000
Si 38.5301425731801 35.2040853504995 0.0000
Si 35.8719544787449 33.1285931385879 0.0000
Si 40.0746628573667 33.9370517553544 0.0000
Si 16.7719347577618 32.4164159653666 0.0000
Si 14.8748189405782 31.7871761845433 0.0000
Si 13.2874202718330 32.9755831559999 0.0000
Si 11.4629914602262 32.2049426604990 0.0000
Si 17.6764605469846 34.1066402056705 0.0000
Si 19.6357722459312 33.8755112384048 0.0000
Si 20.9919914239443 35.2392423095446 0.0000
Si 20.7858072791525 37.2056381709339 0.0000
Si 17.4288393017793 36.0788446226477 0.0000
Si 41.8014086822983 34.9068726594686 0.0000
Si 12.8324888647774 34.8928097806033 0.0000
Si 10.8710286541243 35.2553073999462 0.0000
Si 9.97630906992875 33.5444171319852 0.0000
Si 13.8174330249481 36.6235053410553 0.0000
Si 12.9644085718829 38.4045314702001 0.0000
Si 10.9993102941653 38.7543839961483 0.0000
Si 10.3018731171264 40.6273198356536 0.0000
Si 13.6082882157520 41.7918996812196 0.0000
Si 30.3892899750115 37.1373808931080 0.0000
Si 26.9596997558569 37.8466440376179 0.0000
Si 25.1095604338105 37.3030566515132 0.0000
Si 23.9829598884447 38.9494589348298 0.0000
Si 21.9902004082980 38.7931681039913 0.0000
Si 21.1503777450835 40.6029104232212 0.0000
Si 33.5194263192996 38.8982068904041 0.0000
Si 34.7577403426963 40.3517841783704 0.0000
Si 36.8782631952738 38.1185077594932 0.0000
Si 38.6497945335437 37.1930033574285 0.0000
Si 40.4036120487655 38.1512298755808 0.0000
Si 41.9291546506959 36.8691167766497 0.0000
Si 36.6839215136816 40.1031875939058 0.0000
Si 38.4346499330602 41.0050323017964 0.0000
Si 25.0754693707045 40.5925262457072 0.0000
Si 26.9056126804171 39.8364847172637 0.0000
Si 28.7880372288203 40.3045971632466 0.0000
Si 30.2521400876985 39.1026076695013 0.0000
Si 31.9356918906503 40.1006339627744 0.0000
Si 31.7572670803924 42.0264735595400 0.0000
Si 40.1566163489410 40.1072667887709 0.0000
Si 18.8105439132542 37.4685586453367 0.0000
Si 17.9816487061951 39.2860241457175 0.0000
Si 19.1747784851526 40.8890040086411 0.0000
Si 16.0439694915763 39.1016274556257 0.0000
Si 14.2861096147248 39.9070589645075 0.0000
Si 15.7322232672368 37.1296527579788 0.0000
Si 11.6302038199103 42.1274115201818 0.0000
Si 22.2410195124661 42.2646854961376 0.0000
Si 24.2457009969309 42.4007585107749 0.0000
Si 10.0038110806762 37.0255159734664 0.0000
Si 29.7470397349940 42.0574714457541 0.0000
