432
box 
Si 1.190619 19.678616 0.000000
Si 2.239848 0.083344 0.000000
Si 2.285471 1.106787 0.000000
Si 1.404668 1.628705 0.000000
Si 3.165896 1.638166 0.000000
Si 4.702888 0.385829 0.000000
Si 4.114420 1.240630 0.000000
Si 5.754564 0.565246 0.000000
Si 6.323798 1.380739 0.000000
Si 7.602561 0.493258 0.000000
Si 8.005110 1.424904 0.000000
Si 8.294207 -0.231039 0.000000
Si 9.308076 0.027084 0.000000
Si 10.092136 -0.626746 0.000000
Si 9.642431 0.993208 0.000000
Si 11.129190 -0.616048 0.000000
Si 11.927160 0.016328 0.000000
Si 13.846069 -0.305377 0.000000
Si 12.844963 20.260284 0.000000
Si 14.835879 -0.647383 0.000000
Si 15.525327 0.132034 0.000000
Si 17.367954 0.771192 0.000000
Si 16.558016 0.110454 0.000000
Si 18.310613 0.361596 0.000000
Si 19.278054 0.651964 0.000000
Si 20.023385 -0.023198 0.000000
Si 19.433718 1.601854 0.000000
Si 21.028812 0.134249 0.000000
Si 21.938724 0.609653 0.000000
Si 22.810870 0.117865 0.000000
Si 22.191379 1.552844 0.000000
Si 23.817001 0.109838 0.000000
Si 24.494059 0.889168 0.000000
Si 26.411501 0.815684 0.000000
Si 25.436712 0.495070 0.000000
Si 27.169208 0.080753 0.000000
Si 0.686231 2.965432 0.000000
Si 2.245108 3.207131 0.000000
Si 1.554612 2.592502 0.000000
Si 3.053547 2.661240 0.000000
Si 3.413604 3.549401 0.000000
Si 4.718067 2.023708 0.000000
Si 4.627615 2.974285 0.000000
Si 5.684522 2.041267 0.000000
Si 6.209482 2.855879 0.000000
Si 7.181573 1.952184 0.000000
Si 7.174077 2.951224 0.000000
Si 8.967295 1.779334 0.000000
Si 9.461628 2.686414 0.000000
Si 10.609008 1.317351 0.000000
Si 10.414699 2.310020 0.000000
Si 11.598297 0.994016 0.000000
Si 12.323978 1.721174 0.000000
Si 13.308989 1.465603 0.000000
Si 13.928778 0.681708 0.000000
Si 14.914710 0.916272 0.000000
Si 15.675909 2.551641 0.000000
Si 17.490546 1.796887 0.000000
Si 16.685808 2.465250 0.000000
Si 18.513364 2.037035 0.000000
Si 18.976485 2.891814 0.000000
Si 20.340889 2.077517 0.000000
Si 19.968516 2.991375 0.000000
Si 21.358468 2.120145 0.000000
Si 21.852772 2.984199 0.000000
Si 23.140660 1.961559 0.000000
Si 22.849304 2.902772 0.000000
Si 24.176732 1.861461 0.000000
Si 24.858550 2.667420 0.000000
Si 26.505466 1.838228 0.000000
Si 25.904629 2.704424 0.000000
Si 27.482374 2.003599 0.000000
Si 0.798338 4.811291 0.000000
Si 2.148876 4.199683 0.000000
Si 1.778114 5.094879 0.000000
Si 3.035786 4.456775 0.000000
Si 3.534167 5.300290 0.000000
Si 4.279579 3.812565 0.000000
Si 4.311254 4.782407 0.000000
Si 5.470919 3.412045 0.000000
Si 5.675799 4.318257 0.000000
Si 7.407903 3.931914 0.000000
Si 6.592314 4.490479 0.000000
Si 9.578788 3.727873 0.000000
Si 9.038588 4.633184 0.000000
Si 11.110958 3.013329 0.000000
Si 10.605091 3.883769 0.000000
Si 12.072368 2.723261 0.000000
Si 12.779011 3.439485 0.000000
Si 13.989938 2.195302 0.000000
Si 13.715867 3.133405 0.000000
Si 14.947357 1.890578 0.000000
Si 16.027392 4.133386 0.000000
Si 17.609459 3.899896 0.000000
Si 16.779022 3.461336 0.000000
Si 18.540795 3.717035 0.000000
Si 19.063182 4.527550 0.000000
Si 20.463142 3.860433 0.000000
Si 19.994643 4.717630 0.000000
Si 22.018371 4.661258 0.000000
Si 21.439039 3.870596 0.000000
Si 23.457081 3.675167 0.000000
Si 23.000569 4.547844 0.000000
Si 24.450185 3.612270 0.000000
Si 24.872518 4.539751 0.000000
Si 26.327685 3.683402 0.000000
Si 25.865599 4.594507 0.000000
Si 27.326268 3.880667 0.000000
Si 27.256844 5.646282 0.000000
Si 2.333274 6.001537 0.000000
Si 1.692075 6.743441 0.000000
Si 3.340180 6.265349 0.000000
Si 4.088503 7.052214 0.000000
Si 5.148931 5.118209 0.000000
Si 5.172541 6.814166 0.000000
Si 5.611371 5.927215 0.000000
Si 6.502858 5.461199 0.000000
Si 7.124416 6.539141 0.000000
Si 7.434849 5.610703 0.000000
Si 8.012033 4.740444 0.000000
Si 9.507746 5.567349 0.000000
Si 11.080948 4.773260 0.000000
Si 10.535708 5.623645 0.000000
Si 12.872574 4.442284 0.000000
Si 12.071125 5.029050 0.000000
Si 14.368904 3.878659 0.000000
Si 13.850259 4.750067 0.000000
Si 15.288506 3.504350 0.000000
Si 15.983277 5.144478 0.000000
Si 17.553643 4.853106 0.000000
Si 16.886502 5.527797 0.000000
Si 18.442473 5.242008 0.000000
Si 18.484868 6.193195 0.000000
Si 20.108214 5.689786 0.000000
Si 19.893392 7.314763 0.000000
Si 21.848348 5.632624 0.000000
Si 20.991389 6.098172 0.000000
Si 23.423091 5.441155 0.000000
Si 22.711634 6.129812 0.000000
Si 24.404036 5.444222 0.000000
Si 25.801606 6.440016 0.000000
Si 26.269333 5.542391 0.000000
Si 24.806267 6.361113 0.000000
Si 0.723192 6.523608 0.000000
Si 26.780279 8.054151 0.000000
Si 2.860498 8.748244 0.000000
Si 1.534656 7.705034 0.000000
Si 3.705416 8.073723 0.000000
Si 4.476850 8.761962 0.000000
Si 6.190519 7.061385 0.000000
Si 5.441229 8.501578 0.000000
Si 6.330733 8.055737 0.000000
Si 7.277139 8.482994 0.000000
Si 8.061519 6.877623 0.000000
Si 9.017848 8.089985 0.000000
Si 9.012590 6.472110 0.000000
Si 9.609191 7.284196 0.000000
Si 11.256650 6.338000 0.000000
Si 11.415137 7.312993 0.000000
Si 12.199354 6.018228 0.000000
Si 12.858205 6.798654 0.000000
Si 14.252888 5.689595 0.000000
Si 13.853160 6.637325 0.000000
Si 15.442777 6.842753 0.000000
Si 15.256613 5.840135 0.000000
Si 17.514240 6.278115 0.000000
Si 16.242450 7.419317 0.000000
Si 17.165177 7.136124 0.000000
Si 18.453695 8.470744 0.000000
Si 19.427513 6.432563 0.000000
Si 19.413468 8.189636 0.000000
Si 20.871016 7.078326 0.000000
Si 21.743290 7.530506 0.000000
Si 22.666997 7.120245 0.000000
Si 21.659921 8.495183 0.000000
Si 24.430311 7.295126 0.000000
Si 23.511882 7.665351 0.000000
Si 26.003110 7.438740 0.000000
Si 25.169260 7.976189 0.000000
Si 0.574226 7.488875 0.000000
Si 0.923368 9.257948 0.000000
Si 1.805068 8.658113 0.000000
Si 1.016452 10.252265 0.000000
Si 4.186685 9.761078 0.000000
Si 3.190614 9.742045 0.000000
Si 5.797133 9.362569 0.000000
Si 5.431648 10.229236 0.000000
Si 7.524879 9.458079 0.000000
Si 6.651124 9.767997 0.000000
Si 8.066376 7.871118 0.000000
Si 9.581002 9.815827 0.000000
Si 9.588813 8.869485 0.000000
Si 10.552212 8.648137 0.000000
Si 10.527956 7.678056 0.000000
Si 11.150703 9.436379 0.000000
Si 12.361387 7.694824 0.000000
Si 12.727260 8.676789 0.000000
Si 14.582915 7.355540 0.000000
Si 14.652753 8.372347 0.000000
Si 13.742873 8.846017 0.000000
Si 15.465625 9.040442 0.000000
Si 16.702103 8.280541 0.000000
Si 16.475865 9.213967 0.000000
Si 17.625132 7.969025 0.000000
Si 18.327608 9.472145 0.000000
Si 19.903268 9.053297 0.000000
Si 19.278643 9.850944 0.000000
Si 20.885256 9.114732 0.000000
Si 21.287077 10.014074 0.000000
Si 22.521272 8.967726 0.000000
Si 22.271390 9.901706 0.000000
Si 23.457604 8.665035 0.000000
Si 24.205819 9.348886 0.000000
Si 25.955985 9.621018 0.000000
Si 25.147375 8.986344 0.000000
Si 26.879116 9.074487 0.000000
Si 0.646947 11.622130 0.000000
Si 1.862401 10.806289 0.000000
Si 1.581651 11.739605 0.000000
Si 3.320686 11.638401 0.000000
Si 2.858482 10.707881 0.000000
Si 4.637335 10.670112 0.000000
Si 4.998108 11.627150 0.000000
Si 6.274292 10.638667 0.000000
Si 6.575466 11.519570 0.000000
Si 7.919488 10.379230 0.000000
Si 7.516436 11.315414 0.000000
Si 8.888407 10.481877 0.000000
Si 9.387428 11.325361 0.000000
Si 10.507230 10.183137 0.000000
Si 10.365962 11.146978 0.000000
Si 12.143100 9.555865 0.000000
Si 12.411051 10.563277 0.000000
Si 14.020579 9.803744 0.000000
Si 13.413943 10.582352 0.000000
Si 15.018843 9.916563 0.000000
Si 15.537745 10.750574 0.000000
Si 17.352915 9.800227 0.000000
Si 16.447077 11.153949 0.000000
Si 17.390742 10.813764 0.000000
Si 18.149934 11.518598 0.000000
Si 19.764407 10.747933 0.000000
Si 19.187332 11.568749 0.000000
Si 20.786603 10.864615 0.000000
Si 21.524954 11.558543 0.000000
Si 22.991703 10.541147 0.000000
Si 22.530527 11.389208 0.000000
Si 23.968449 10.336077 0.000000
Si 24.645136 11.095755 0.000000
Si 26.307777 11.292330 0.000000
Si 25.580297 10.617702 0.000000
Si 27.180507 10.803317 0.000000
Si 0.645839 13.250274 0.000000
Si 2.160401 13.174793 0.000000
Si 1.401614 12.684245 0.000000
Si 2.793754 12.462474 0.000000
Si 3.410853 13.188366 0.000000
Si 4.343613 13.157208 0.000000
Si 4.193767 12.165633 0.000000
Si 5.861333 12.198899 0.000000
Si 6.318657 13.133321 0.000000
Si 7.935337 12.209559 0.000000
Si 7.364878 13.046022 0.000000
Si 8.932508 12.189582 0.000000
Si 9.564548 12.942616 0.000000
Si 11.034833 11.861403 0.000000
Si 10.572122 12.772997 0.000000
Si 11.997297 11.531867 0.000000
Si 12.571894 12.369855 0.000000
Si 13.936325 11.412378 0.000000
Si 13.540150 12.287423 0.000000
Si 14.902115 11.507201 0.000000
Si 15.344577 12.384352 0.000000
Si 16.876612 12.857473 0.000000
Si 16.270206 12.130954 0.000000
Si 17.755849 12.444426 0.000000
Si 18.213533 13.291083 0.000000
Si 19.743022 12.423950 0.000000
Si 19.133740 13.169863 0.000000
Si 21.494447 12.553840 0.000000
Si 20.593849 12.990695 0.000000
Si 23.165576 12.146885 0.000000
Si 22.458492 12.874735 0.000000
Si 24.202700 12.068931 0.000000
Si 24.497901 13.063769 0.000000
Si 26.214736 12.306817 0.000000
Si 26.195422 13.313691 0.000000
Si 27.141537 12.436489 0.000000
Si 26.992110 13.957422 0.000000
Si 2.100183 14.130576 0.000000
Si 2.062543 15.103328 0.000000
Si 3.037096 14.074859 0.000000
Si 3.640541 14.801846 0.000000
Si 5.966298 14.115577 0.000000
Si 4.393020 14.167205 0.000000
Si 5.172810 14.750290 0.000000
Si 6.649528 14.817989 0.000000
Si 8.029179 13.807773 0.000000
Si 7.621034 14.694779 0.000000
Si 9.041055 13.803149 0.000000
Si 9.587429 14.632772 0.000000
Si 11.031707 13.646301 0.000000
Si 10.548134 14.480690 0.000000
Si 12.584282 13.367803 0.000000
Si 11.921472 14.039213 0.000000
Si 14.027214 13.151749 0.000000
Si 13.414711 13.899863 0.000000
Si 14.985027 13.289126 0.000000
Si 15.272915 14.235813 0.000000
Si 16.823815 13.852656 0.000000
Si 16.200713 14.597007 0.000000
Si 17.734581 14.158154 0.000000
Si 18.077011 15.069379 0.000000
Si 19.492114 14.042431 0.000000
Si 19.035081 14.894100 0.000000
Si 20.445788 13.997501 0.000000
Si 21.438547 15.236263 0.000000
Si 22.783549 13.804837 0.000000
Si 22.269538 14.664285 0.000000
Si 23.792915 13.787837 0.000000
Si 25.251219 14.715440 0.000000
Si 25.303433 13.701908 0.000000
Si 24.288512 14.654260 0.000000
Si 0.265079 14.944333 0.000000
Si 0.103103 16.611590 0.000000
Si 1.150076 15.462208 0.000000
Si 1.099691 16.468373 0.000000
Si 2.975306 15.537526 0.000000
Si 3.301046 16.485534 0.000000
Si 4.967201 15.776531 0.000000
Si 4.295643 16.541744 0.000000
Si 6.466205 15.792775 0.000000
Si 5.736138 16.401602 0.000000
Si 7.981492 15.597646 0.000000
Si 7.275760 16.284979 0.000000
Si 9.607565 15.620452 0.000000
Si 8.785694 16.114341 0.000000
Si 11.132356 15.290357 0.000000
Si 10.516442 16.028442 0.000000
Si 12.066979 15.036988 0.000000
Si 12.926002 15.563630 0.000000
Si 13.666326 14.874442 0.000000
Si 13.085452 16.572000 0.000000
Si 14.654970 15.013169 0.000000
Si 15.269978 15.797249 0.000000
Si 16.964746 16.363246 0.000000
Si 16.259952 15.604005 0.000000
Si 17.957022 16.061956 0.000000
Si 18.953965 16.359054 0.000000
Si 19.669538 15.620100 0.000000
Si 19.291888 17.310971 0.000000
Si 20.486939 14.997440 0.000000
Si 21.612914 16.212648 0.000000
Si 22.937483 15.377836 0.000000
Si 22.589007 16.272751 0.000000
Si 23.893217 15.509579 0.000000
Si 24.241726 16.435074 0.000000
Si 25.639421 15.675935 0.000000
Si 25.216107 16.631949 0.000000
Si 26.630056 15.720472 0.000000
Si 0.353412 18.240079 0.000000
Si 1.783607 17.219414 0.000000
Si 1.343972 18.102891 0.000000
Si 2.790738 17.362687 0.000000
Si 3.259601 18.300701 0.000000
Si 4.665602 17.498613 0.000000
Si 4.260041 18.425913 0.000000
Si 5.644209 17.407272 0.000000
Si 6.169507 18.272410 0.000000
Si 7.533537 17.214495 0.000000
Si 7.169768 18.134886 0.000000
Si 8.496792 17.050090 0.000000
Si 9.092548 17.784923 0.000000
Si 10.757282 16.967852 0.000000
Si 10.024510 17.610175 0.000000
Si 12.550465 17.429310 0.000000
Si 11.579991 17.505550 0.000000
Si 13.983168 16.995410 0.000000
Si 13.985226 18.005332 0.000000
Si 14.918530 16.699618 0.000000
Si 15.537815 17.470313 0.000000
Si 16.886863 18.253066 0.000000
Si 16.536760 17.312113 0.000000
Si 18.776060 18.191707 0.000000
Si 17.841475 18.542701 0.000000
Si 20.289040 17.510567 0.000000
Si 20.327054 18.508168 0.000000
Si 21.206135 17.099904 0.000000
Si 22.011159 17.695302 0.000000
Si 23.373204 16.861425 0.000000
Si 21.901448 18.637230 0.000000
Si 23.006814 17.720550 0.000000
Si 24.380359 18.998168 0.000000
Si 25.647359 17.595064 0.000000
Si 25.321144 18.595951 0.000000
Si 26.665349 17.513662 0.000000
Si 26.704776 19.940127 0.000000
Si 1.845551 18.969995 0.000000
Si 1.206343 20.665215 0.000000
Si 2.799222 19.198356 0.000000
Si 3.089244 20.195190 0.000000
Si 4.747784 19.354838 0.000000
Si 4.167407 20.254835 0.000000
Si 5.798460 19.239252 0.000000
Si 6.597462 19.901538 0.000000
Si 7.869738 18.856037 0.000000
Si 6.626973 0.103037 0.000000
Si 8.843890 18.738647 0.000000
Si 7.611849 19.791165 0.000000
Si 10.339381 18.523488 0.000000
Si 9.688254 19.249612 0.000000
Si 11.284497 18.445560 0.000000
Si 11.666177 19.316720 0.000000
Si 13.051089 18.329323 0.000000
Si 12.655253 19.269491 0.000000
Si 14.935749 18.290860 0.000000
Si 15.285753 19.217746 0.000000
Si 16.840385 19.920833 0.000000
Si 16.285333 19.093927 0.000000
Si 17.757738 19.543994 0.000000
Si 18.487858 20.183239 0.000000
Si 19.455988 18.936688 0.000000
Si 19.449857 19.926165 0.000000
Si 21.072051 19.117008 0.000000
Si 21.402984 20.023272 0.000000
Si 22.736929 19.151375 0.000000
Si 22.399749 20.034470 0.000000
Si 23.501997 18.564241 0.000000
Si 24.317806 20.013429 0.000000
Si 25.833976 19.490373 0.000000
Si 25.260672 20.292772 0.000000
Si 0.327527 19.218319 0.000000
